Network_data/Greensboro_GSO_urban_SH_BH/uhs17_1247/analysis/peak_line_overloads.csv
Loading (p.u.),Name,Bus1,Bus2
1.0078931175664334,Line.l(r:udm12444-udt3154lv),udt3154lv.1.2,udm12444.1.2
1.0078931218037448,Line.l(r:p1ulv6974-udm12444),udm12444.1.2,p1ulv6974.1.2
1.0187862163084014,Line.l(r:p1ulv17264-udt8277lv),udt8277lv.1.2,p1ulv17264.1.2
1.0490111573146896,Line.l(r:udm27477-udt7466lv),udt7466lv.1.2,udm27477.1.2
1.1069982467553128,Line.l(r:udm3973-udt973lv),udt973lv.1.2,udm3973.1.2
1.1099076927496132,Line.l(r:p1ulv25573-udm4074),udm4074.1.2,p1ulv25573.1.2
1.1226911266341384,Line.l(r:udm32725-udt9300lv),udt9300lv.1.2,udm32725.1.2
1.122691433568484,Line.l(r:p1ulv19884-udm32725),udm32725.1.2,p1ulv19884.1.2
1.139496906549221,Line.l(r:udm35461-udt10263lv),udt10263lv.1.2,udm35461.1.2
1.1394969432784048,Line.l(r:p1ulv24711-udm35461),udm35461.1.2,p1ulv24711.1.2
1.1413753603605254,Line.l(r:p1ulv15258-udt7315lv),udt7315lv.1.2,p1ulv15258.1.2
1.1496378922332806,Line.l(r:udm32802-udt9341lv),udt9341lv.1.2,udm32802.1.2
1.149637998974917,Line.l(r:p1ulv20027-udm32802),udm32802.1.2,p1ulv20027.1.2
1.1712428734105547,Line.l(r:p1ulv20040-udm3973),udm3973.1.2,p1ulv20040.1.2
1.1731454274205684,Line.l(r:p1ulv16825-udt8078lv),udt8078lv.1.2,p1ulv16825.1.2
1.1756036927746751,Line.l(r:udm4040-udt993lv),udt993lv.1.2,udm4040.1.2
1.3578533754508213,Line.l(r:p1ulv1827-udt970lv),udt970lv.1.2,p1ulv1827.1.2
1.3682935950880748,Line.l(r:p1ulv27463-udt11719lv),udt11719lv.1.2,p1ulv27463.1.2
1.4030766320031824,Line.l(r:p1ulv15230-udt7298lv),udt7298lv.1.2,p1ulv15230.1.2
1.4084793592187845,Line.l(r:udm26715-udt7208lv),udt7208lv.1.2,udm26715.1.2
1.4084793623330447,Line.l(r:p1ulv15061-udm26715),udm26715.1.2,p1ulv15061.1.2
1.4629253796652497,Line.l(r:p1ulv6983-udt3161lv),udt3161lv.1.2,p1ulv6983.1.2
1.4743360160885353,Line.l(r:udm22840-udt6075lv),udt6075lv.1.2,udm22840.1.2
1.4743360552202978,Line.l(r:p1ulv13268-udm22840),udm22840.1.2,p1ulv13268.1.2
1.4830356848051258,Line.l(r:p1ulv4861-udm8866),udm8866.1.2,p1ulv4861.1.2
1.4873959158775742,Line.l(r:p1ulv24725-udt10606lv),udt10606lv.1.2,p1ulv24725.1.2
1.4935369817386863,Line.l(r:p1ulv24029-udt10381lv),udt10381lv.1.2,p1ulv24029.1.2
1.4959954888060427,Line.l(r:p1ulv25411-udm27477),udm27477.1.2,p1ulv25411.1.2
1.4995980308037493,Line.l(r:udm27474-udm27475),udm27474.1.2,udm27475.1.2
1.4995980799576234,Line.l(r:p1ulv20462-udm27475),udm27475.1.2,p1ulv20462.1.2
1.5118949715631738,Line.l(r:p1ulv37270-udt14819lv),udt14819lv.1.2,p1ulv37270.1.2
1.5259369161946028,Line.l(r:udm32714-udt9294lv),udt9294lv.1.2,udm32714.1.2
1.5259369868670771,Line.l(r:p1ulv19868-udm32714),udm32714.1.2,p1ulv19868.1.2
1.527974938788517,Line.l(r:p1ulv34162-udt14065lv),udt14065lv.1.2,p1ulv34162.1.2
1.536821376173455,Line.l(r:p1ulv34273-udt972lv),udt972lv.1.2,p1ulv34273.1.2
1.5378280173622219,Line.l(r:p1ulv22056-udt9889lv),udt9889lv.1.2,p1ulv22056.1.2
1.5616310700660807,Line.l(r:p1ulv27638-udt11748lv),udt11748lv.1.2,p1ulv27638.1.2
1.6386745631447461,Line.l(r:p1ulv1824-udt967lv),udt967lv.1.2,p1ulv1824.1.2
1.7206997658122727,Line.l(r:p1ulv15076-udt7215lv),udt7215lv.1.2,p1ulv15076.1.2
1.722621341331716,Line.l(r:udm12470-udt3166lv),udt3166lv.1.2,udm12470.1.2
1.7226214347315905,Line.l(r:p1ulv29083-udm12470),udm12470.1.2,p1ulv29083.1.2
1.7810727159962443,Line.l(r:p1ulv1859-udm4040),udm4040.1.2,p1ulv1859.1.2
2.2106219186144487,Line.l(r:p1ulv22434-udt9981lv),udt9981lv.1.2,p1ulv22434.1.2
2.371930485173392,Line.l(r:p1ulv18998-udt8966lv),udt8966lv.1.2,p1ulv18998.1.2
2.372970098342779,Line.l(r:p1ulv16674-udt8003lv),udt8003lv.1.2,p1ulv16674.1.2
2.4120002759794157,Line.l(r:udm22471-udt5977lv),udt5977lv.1.2,udm22471.1.2
2.4120003887129613,Line.l(r:p1ulv16708-udm22471),udm22471.1.2,p1ulv16708.1.2
2.4268771300672065,Line.l(r:udm29011-udt7923lv),udt7923lv.1.2,udm29011.1.2
2.4268772663056986,Line.l(r:p1ulv16487-udm29011),udm29011.1.2,p1ulv16487.1.2
2.522977770718018,Line.l(r:p1ulv36005-udt9740lv),udt9740lv.1.2,p1ulv36005.1.2
2.541891025545656,Line.l(r:p1ulv24593-udt10584lv),udt10584lv.1.2,p1ulv24593.1.2
2.5694525823379872,Line.l(r:p1ulv6875-udt3104lv),udt3104lv.1.2,p1ulv6875.1.2
2.569927213328061,Line.l(r:p1ulv20821-udt9553lv),udt9553lv.1.2,p1ulv20821.1.2
2.570514273457781,Line.l(r:p1ulv12260-udt5472lv),udt5472lv.1.2,p1ulv12260.1.2
2.615154745175754,Line.l(r:udm25128-udt6739lv),udt6739lv.1.2,udm25128.1.2
2.6151547556861443,Line.l(r:p1ulv14205-udm25128),udm25128.1.2,p1ulv14205.1.2
2.618411124112091,Line.l(r:p1ulv15774-udm6609),udm6609.1.2,p1ulv15774.1.2
2.620297289461016,Line.l(r:p1ulv16360-udt7875lv),udt7875lv.1.2,p1ulv16360.1.2
2.6208200605312904,Line.l(r:udm31748-udt8945lv),udt8945lv.1.2,udm31748.1.2
2.6208202902294357,Line.l(r:p1ulv32502-udm31748),udm31748.1.2,p1ulv32502.1.2
2.629954149808482,Line.l(r:udm25129-udt6739lv),udt6739lv.1.2,udm25129.1.2
2.6299543425350747,Line.l(r:p1ulv14889-udm25129),udm25129.1.2,p1ulv14889.1.2
2.6309484867427115,Line.l(r:p1ulv13876-udt6523lv),udt6523lv.1.2,p1ulv13876.1.2
2.6436722112553794,Line.l(r:udm8866-udt2217lv),udt2217lv.1.2,udm8866.1.2
2.6807580322574376,Line.l(r:p1ulv4859-udt2217lv),udt2217lv.1.2,p1ulv4859.1.2
2.693925303763873,Line.l(r:p1ulv16351-udt7874lv),udt7874lv.1.2,p1ulv16351.1.2
2.6977010717252488,Line.l(r:p1ulv16359-udt7875lv),udt7875lv.1.2,p1ulv16359.1.2
2.7076247915494323,Line.l(r:p1ulv16357-udt7875lv),udt7875lv.1.2,p1ulv16357.1.2
2.710545225864727,Line.l(r:p1ulv17740-udt6779lv),udt6779lv.1.2,p1ulv17740.1.2
2.7108783850617444,Line.l(r:p1ulv20823-udt9553lv),udt9553lv.1.2,p1ulv20823.1.2
2.7204581630269407,Line.l(r:p1ulv12269-udt890lv),udt890lv.1.2,p1ulv12269.1.2
2.748697507246771,Line.l(r:p1ulv23927-udt10357lv),udt10357lv.1.2,p1ulv23927.1.2
2.771643017957907,Line.l(r:p1ulv18490-udt8791lv),udt8791lv.1.2,p1ulv18490.1.2
2.8357159820042295,Line.l(r:udm31747-udt8945lv),udt8945lv.1.2,udm31747.1.2
2.835716439777452,Line.l(r:p1ulv18918-udm31747),udm31747.1.2,p1ulv18918.1.2
2.8425300505539206,Line.l(r:udm23241-udt6187lv),udt6187lv.1.2,udm23241.1.2
2.8425300665650894,Line.l(r:p1ulv29171-udm23241),udm23241.1.2,p1ulv29171.1.2
2.86519988166941,Line.l(r:udm12278-udt3101lv),udt3101lv.1.2,udm12278.1.2
2.865200087349584,Line.l(r:p1ulv6872-udm12278),udm12278.1.2,p1ulv6872.1.2
2.881461226099161,Line.l(r:p1ulv1861-udt994lv),udt994lv.1.2,p1ulv1861.1.2
2.9006153434937225,Line.l(r:p1ulv22220-udt9933lv),udt9933lv.1.2,p1ulv22220.1.2
2.90506260143824,Line.l(r:udm4074-udt1002lv),udt1002lv.1.2,udm4074.1.2
2.9073464098118915,Line.l(r:udm6609-udm6610),udm6609.1.2,udm6610.1.2
2.9073464175360084,Line.l(r:p1ulv30868-udm6610),udm6610.1.2,p1ulv30868.1.2
2.9168764800883693,Line.l(r:p1ulv16358-udt7875lv),udt7875lv.1.2,p1ulv16358.1.2
2.9707546441170933,Line.l(r:p1ulv20829-udt9557lv),udt9557lv.1.2,p1ulv20829.1.2
3.0342025386321785,Line.l(r:p1ulv6978-udt3156lv),udt3156lv.1.2,p1ulv6978.1.2
3.0751213676598383,Line.l(r:p1ulv12264-udt890lv),udt890lv.1.2,p1ulv12264.1.2
3.076663402554013,Line.l(r:udm29012-udt7923lv),udt7923lv.1.2,udm29012.1.2
3.07666363831378,Line.l(r:p1ulv32662-udm29012),udm29012.1.2,p1ulv32662.1.2
3.11001104910126,Line.l(r:p1ulv21722-udt9801lv),udt9801lv.1.2,p1ulv21722.1.2
3.1249174781231166,Line.l(r:p1ulv17265-udt3101lv),udt3101lv.1.2,p1ulv17265.1.2
3.136314830155216,Line.l(r:p1ulv32734-udt13635lv),udt13635lv.1.2,p1ulv32734.1.2
3.1711444828366204,Line.l(r:p1ulv16355-udt7874lv),udt7874lv.1.2,p1ulv16355.1.2
3.193366611657588,Line.l(r:p1ulv17175-udt8236lv),udt8236lv.1.2,p1ulv17175.1.2
5.416420395309985,Line.l(r:udm6609-udt1654lv),udt1654lv.1.2,udm6609.1.2
