Network_data/Greensboro_GSO_urban_SH_BH/uhs17_1247/analysis/peak_transformer_overloads.csv
Loading (p.u.),Name,Bus and Phases,kVA,Number of Phases
1.0060066056440486,Transformer.tr(r:udt9875-udt9875lv),udt9875,75.0,3
1.0206747210405258,Transformer.tr(r:udt10735-udt10735lv),udt10735,75.0,3
1.1166129470776194,Transformer.tr(r:udt9555-udt9555lv),udt9555,300.0,3
1.2131271064796876,Transformer.tr(r:udt5831-udt5831lv),udt5831,150.0,3
1.2158145581205286,Transformer.tr(r:udt9981-udt9981lv),udt9981.3,50.0,1
1.2178337099695202,Transformer.tr(r:udt6075-udt6075lv),udt6075.1,50.0,1
1.2632422231413865,Transformer.tr(r:udt3091-udt3091lv),udt3091,150.0,3
1.2835946753057872,Transformer.tr(r:udt965-udt965lv),udt965.3,50.0,1
1.2874861924972973,Transformer.tr(r:udt9740-udt9740lv),udt9740.1,50.0,1
1.2974079278549617,Transformer.tr(r:udt5977-udt5977lv),udt5977.1,50.0,1
1.3050833557896813,Transformer.tr(r:udt8966-udt8966lv),udt8966.3,50.0,1
1.3056727245473332,Transformer.tr(r:udt8003-udt8003lv),udt8003.1,50.0,1
1.3236083025676444,Transformer.tr(r:udt2864-udt2864lv),udt2864,300.0,3
1.3466929986937333,Transformer.tr(r:udt3154-udt3154lv),udt3154.3,50.0,1
1.3548531819472895,Transformer.tr(r:udt10668-udt10668lv),udt10668,150.0,3
1.3649298467522977,Transformer.tr(r:udt6187-udt6187lv),udt6187.3,50.0,1
1.3990461590659387,Transformer.tr(r:udt10584-udt10584lv),udt10584.1,50.0,1
1.406405075985609,Transformer.tr(r:udt10357-udt10357lv),udt10357.2,50.0,1
1.4150327537665863,Transformer.tr(r:udt5472-udt5472lv),udt5472.2,50.0,1
1.4181572353471805,Transformer.tr(r:udt11750-udt11750lv),udt11750,150.0,3
1.44837713087818,Transformer.tr(r:udt6523-udt6523lv),udt6523.3,50.0,1
1.4521637760698265,Transformer.tr(r:udt8924-udt8924lv),udt8924,150.0,3
1.467867429226143,Transformer.tr(r:udt8277-udt8277lv),udt8277.1,50.0,1
1.470159599925505,Transformer.tr(r:udt1002-udt1002lv),udt1002.2,50.0,1
1.5104829121010208,Transformer.tr(r:udt973-udt973lv),udt973.1,50.0,1
1.535435856173068,Transformer.tr(r:udt9341-udt9341lv),udt9341.2,50.0,1
1.5879553348230633,Transformer.tr(r:udt6248-udt6248lv),udt6248,150.0,3
1.6247744003236582,Transformer.tr(r:udt9300-udt9300lv),udt9300.2,50.0,1
1.6358515739141306,Transformer.tr(r:udt9557-udt9557lv),udt9557.3,50.0,1
1.644931250983181,Transformer.tr(r:udt7315-udt7315lv),udt7315.2,50.0,1
1.6779075724915382,Transformer.tr(r:udt10263-udt10263lv),udt10263.1,50.0,1
1.686836475309562,Transformer.tr(r:udt993-udt993lv),udt993.3,50.0,1
1.8200311218753384,Transformer.tr(r:udt9553-udt9553lv),udt9553.3,75.0,1
1.9042156716994418,Transformer.tr(r:udt7874-udt7874lv),udt7874.3,75.0,1
1.980538832814291,Transformer.tr(r:udt7466-udt7466lv),udt7466.2,75.0,1
2.0126100235377846,Transformer.tr(r:udt3097-udt3097lv),udt3097,100.0,3
2.036452493904561,Transformer.tr(r:udt10716-udt10716lv),udt10716,100.0,3
2.051565637905139,Transformer.tr(r:udt8792-udt8792lv),udt8792,100.0,3
2.696036968693042,Transformer.tr(r:udt10617-udt10617lv),udt10617.1,25.0,1
2.8101101362853464,Transformer.tr(r:udt1654-udt1654lv),udt1654.1,50.0,1
2.82429726104642,Transformer.tr(r:udt6739-udt6739lv),udt6739.1,50.0,1
2.8304925292839593,Transformer.tr(r:udt3104-udt3104lv),udt3104.1,25.0,1
2.8470734501944444,Transformer.tr(r:udt2217-udt2217lv),udt2217.2,50.0,1
2.8734370609656614,Transformer.tr(r:udt3161-udt3161lv),udt3161.2,25.0,1
2.8918421535912913,Transformer.tr(r:udt9294-udt9294lv),udt9294.2,25.0,1
2.921410577789415,Transformer.tr(r:udt10606-udt10606lv),udt10606.2,25.0,1
2.934370939464831,Transformer.tr(r:udt10381-udt10381lv),udt10381.2,25.0,1
2.9698866389955088,Transformer.tr(r:udt14819-udt14819lv),udt14819.1,25.0,1
3.0034361000154854,Transformer.tr(r:udt8945-udt8945lv),udt8945.2,50.0,1
3.015376378502241,Transformer.tr(r:udt994-udt994lv),udt994.1,25.0,1
3.0205453453372524,Transformer.tr(r:udt7208-udt7208lv),udt7208.3,25.0,1
3.0212425166113928,Transformer.tr(r:udt9889-udt9889lv),udt9889.2,25.0,1
3.0310382970756766,Transformer.tr(r:udt7923-udt7923lv),udt7923.3,50.0,1
3.0319127783145334,Transformer.tr(r:udt970-udt970lv),udt970.2,25.0,1
3.0509056015976594,Transformer.tr(r:udt972-udt972lv),udt972.3,25.0,1
3.0542620289574933,Transformer.tr(r:udt8791-udt8791lv),udt8791.2,25.0,1
3.0549381753497857,Transformer.tr(r:udt11719-udt11719lv),udt11719.2,25.0,1
3.130785354257232,Transformer.tr(r:udt890-udt890lv),udt890.3,50.0,1
3.133029594373378,Transformer.tr(r:udt7298-udt7298lv),udt7298.1,25.0,1
3.1969825528301405,Transformer.tr(r:udt9933-udt9933lv),udt9933.1,25.0,1
3.2196838902981018,Transformer.tr(r:udt967-udt967lv),udt967.1,25.0,1
3.299720840526278,Transformer.tr(r:udt3101-udt3101lv),udt3101.1,50.0,1
3.3431567853299278,Transformer.tr(r:udt3156-udt3156lv),udt3156.1,25.0,1
3.3803132390719894,Transformer.tr(r:udt7215-udt7215lv),udt7215.3,25.0,1
3.383454458037371,Transformer.tr(r:udt8078-udt8078lv),udt8078.3,25.0,1
3.4116314988204297,Transformer.tr(r:udt14065-udt14065lv),udt14065.3,25.0,1
3.4273587871025395,Transformer.tr(r:udt9801-udt9801lv),udt9801.1,25.0,1
3.45613243622287,Transformer.tr(r:udt13635-udt13635lv),udt13635.1,25.0,1
3.4868788106638426,Transformer.tr(r:udt11748-udt11748lv),udt11748.1,25.0,1
3.507345585001602,Transformer.tr(r:udt3166-udt3166lv),udt3166.1,25.0,1
3.5199809013571803,Transformer.tr(r:udt8236-udt8236lv),udt8236.1,25.0,1
3.8465444360556735,Transformer.tr(r:udt7875-udt7875lv),udt7875.3,75.0,1
